
#======================================================================
# CRYSTAL DATA
#----------------------------------------------------------------------
data_VESTA_phase_1

_chemical_name_common                  'New structure'
_cell_length_a                         8.008300
_cell_length_b                         21.881001
_cell_length_c                         7.767200
_cell_angle_alpha                      90.000000
_cell_angle_beta                       90.000000
_cell_angle_gamma                      90.000000
_cell_volume                           1361.043446
_space_group_name_H-M_alt              'C m c 21'
_space_group_IT_number                 36

loop_
_space_group_symop_operation_xyz
   'x, y, z'
   '-x, -y, z+1/2'
   'x, -y, z+1/2'
   '-x, y, z'
   'x+1/2, y+1/2, z'
   '-x+1/2, -y+1/2, z+1/2'
   'x+1/2, -y+1/2, z+1/2'
   '-x+1/2, y+1/2, z'

loop_
   _atom_site_label
   _atom_site_occupancy
   _atom_site_fract_x
   _atom_site_fract_y
   _atom_site_fract_z
   _atom_site_adp_type
   _atom_site_B_iso_or_equiv
   _atom_site_type_symbol
   Na1        1.0     0.500000     0.160(3)     0.555(11)   Biso 13.300000 Na
   Na2        1.0     0.767(14)    0.027(4)     0.498(7)    Biso 13.300000 Na
   B1         1.0     0.000000     0.765(6)     0.319(3)    Biso 10.000000 B
   H2         1.0     0.000000     0.712(6)     0.330(5)    Biso 10.000000 H
   B3         1.0    -0.182830     0.810(7)     0.370(14)   Biso 10.000000 B
   H4         1.0    -0.306070     0.787(8)     0.417(2)    Biso 10.000000 H
   B5         1.0    -0.112820     0.883(10)    0.454(16)   Biso 10.000000 B
   H6         1.0    -0.189020     0.909(14)    0.556(3)    Biso 10.000000 H
   B7         1.0     0.000000     0.922(6)     0.284(3)    Biso 10.000000 B
   H8         1.0     0.000000     0.975(6)     0.272(5)    Biso 10.000000 H
   B9         1.0     0.113120     0.804(10)    0.149(16)   Biso 10.000000 B
   H10        1.0     0.189238     0.777(14)    0.047(3)    Biso 10.000000 H
   B11        1.0     0.182870     0.877(7)     0.233(14)   Biso 10.000000 B
   H12        1.0     0.306170     0.899(8)     0.186(2)    Biso 10.000000 H
   H13        1.0     0.000000     0.794(18)    0.645(2)    Biso 10.000000 H
   B14        1.0     0.000000     0.873(12)    0.096(12)   Biso 10.000000 B
   B15        1.0     0.000000     0.814(12)    0.506800    Biso 10.000000 B
   H16        1.0     0.000000     0.893(18)   -0.043(2)    Biso 10.000000 H
   B          1.0     0.000000     0.567(3)     0.236(10)   Biso 10.000000 B
   Hb1        1.0    -0.118000     0.575000     0.154000    Biso 10.000000 H
   Hb2        1.0     0.000000     0.516(8)     0.280(4)    Biso 10.000000 H
   Hb3        1.0     0.000000     0.600(13)    0.350(3)    Biso 10.000000 H
